//DALCDS JOB (JOB),
//             'INSTALL DALCDS',
//             CLASS=A,
//             MSGCLASS=A,
//             MSGLEVEL=(1,1),
//             USER=IBMUSER,
//             PASSWORD=SYS1
//MACLIB   EXEC PGM=PDSLOAD
//STEPLIB  DD  DSN=SYSC.LINKLIB,DISP=SHR
//SYSPRINT DD  SYSOUT=*
//SYSUT2   DD  DSN=&&MACLIBS,UNIT=SYSDA,
//             DISP=(,PASS,DELETE),
//             SPACE=(TRK,(04,02,02)),
//             DCB=(RECFM=FB,LRECL=80,BLKSIZE=800,DSORG=PS)
//SYSUT1   DD  DATA,DLM=@@
./ ADD NAME=DVCTBL
         MACRO
&NAME    DVCTBL
         PUSH  PRINT
         PRINT GEN
**********************************************************************
*   Macro:  DVCTBL    V1R0M00    07/30/2020
*  Author:  Larry Belmontes Jr.
*           https://ShareABitofIT.net/SHRABIT-MACLIB-in-mvs-3-8j
*           Copyright (C) 2020-2021  Larry Belmontes, Jr.
**********************************************************************
**********************************************************************
*              8 bytes   /  DVCLST Table-------------------------    *
*              per entry+   01 bytes, device type code               *
*                        \  07 bytes, Device Type                    *
**********************************************************************
*  Disclaimer:
*  ===================================================================
*
*     No guarantee; No warranty; Install / Use at your own risk.
*
*     This software is provided "AS IS" and without any expressed
*  or implied warranties, including, without limitation, the
*  implied warranties of merchantability and fitness for a
*  particular purpose.
*
*     The author requests keeping authors name intact in any
*  modified versions.
*
*     In addition, the author requests readers to submit any
*  code modifications / enhancements and associated comments
*  for consideration into a subsequent release (giving credit
*  to contributor(s)) thus, improving overall functionality
*  and further benefiting the MVS 3.8J hobbyist public domain
*  community.
*
*
DVCLST$  DC    X'00',CL7'??***??'
DVCLST$L EQU   *-DVCLST$           Table Entry length
         DC    X'01',CL7'2311   '
         DC    X'02',CL7'2301   '
         DC    X'03',CL7'2303   '
         DC    X'04',CL7'9345   '
         DC    X'05',CL7'2321   '
         DC    X'06',CL7'2305-1 '
         DC    X'07',CL7'2305-2 '
         DC    X'08',CL7'2314   '
         DC    X'09',CL7'3330   '
         DC    X'0A',CL7'3340   '
         DC    X'0B',CL7'3350   '
         DC    X'0C',CL7'3375   '
         DC    X'0D',CL7'3330-11'
         DC    X'0E',CL7'3380   '
         DC    X'0F',CL7'3390   '
DVCLST$E EQU   (*-DVCLST$)/DVCLST$L  Table Entries
*
*              END OF DVCTBL
         POP   PRINT
         MEND
./ ADD NAME=ISPFPL
         MACRO
         ISPFPL
         PUSH  PRINT
         PRINT GEN
**********************************************************************
*   Macro:  ISPFPL    V1R0M00    07/30/2020
*  Author:  Larry Belmontes Jr.
*           https://ShareABitofIT.net/SHRABIT-MACLIB-in-mvs-3-8j
*           Copyright (C) 2020-2021  Larry Belmontes, Jr.
**********************************************************************
**********************************************************************
*        ISPF LINK Parameter Address List                            *
**********************************************************************
*  Disclaimer:
*  ===================================================================
*
*     No guarantee; No warranty; Install / Use at your own risk.
*
*     This software is provided "AS IS" and without any expressed
*  or implied warranties, including, without limitation, the
*  implied warranties of merchantability and fitness for a
*  particular purpose.
*
*     The author requests keeping authors name intact in any
*  modified versions.
*
*     In addition, the author requests readers to submit any
*  code modifications / enhancements and associated comments
*  for consideration into a subsequent release (giving credit
*  to contributor(s)) thus, improving overall functionality
*  and further benefiting the MVS 3.8J hobbyist public domain
*  community.
*
*
ISPLINK  DS    F                   Entry point for ISPLINK
ISPFP1   DS    A                   ISPLINK Parm 1
ISPFP2   DS    A                   ISPLINK Parm 2
ISPFP3   DS    A                   ISPLINK Parm 3
ISPFP4   DS    A                   ISPLINK Parm 4
ISPFP5   DS    A                   ISPLINK Parm 5
ISPFP6   DS    A                   ISPLINK Parm 6
ISPFP7   DS    A                   ISPLINK Parm 7
ISPFP8   DS    A                   ISPLINK Parm 8
ISPFP9   DS    A                   ISPLINK Parm 9
ISPFP10  DS    A                   ISPLINK Parm 10
*
*              END OF ISPFPL
         POP   PRINT
         MEND
./ ADD NAME=ISPFSRV
         MACRO
         ISPFSRV
         PUSH  PRINT
         PRINT GEN
**********************************************************************
*   Macro:  ISPFSRV   V1R0M00    07/30/2020
*  Author:  Larry Belmontes Jr.
*           https://ShareABitofIT.net/SHRABIT-MACLIB-in-mvs-3-8j
*           Copyright (C) 2020-2021  Larry Belmontes, Jr.
**********************************************************************
**********************************************************************
*        ISPF Services and keywords (kw)                             *
**********************************************************************
*  Disclaimer:
*  ===================================================================
*
*     No guarantee; No warranty; Install / Use at your own risk.
*
*     This software is provided "AS IS" and without any expressed
*  or implied warranties, including, without limitation, the
*  implied warranties of merchantability and fitness for a
*  particular purpose.
*
*     The author requests keeping authors name intact in any
*  modified versions.
*
*     In addition, the author requests readers to submit any
*  code modifications / enhancements and associated comments
*  for consideration into a subsequent release (giving credit
*  to contributor(s)) thus, improving overall functionality
*  and further benefiting the MVS 3.8J hobbyist public domain
*  community.
*
*
CONTROL  DC    CL8'CONTROL '               Service Control
VDEFINE  DC    CL8'VDEFINE '               Service VDEFINE
VDELETE  DC    CL8'VDELETE '               Service VDELETE
DISPLAY  DC    CL8'DISPLAY '               Service Display
SELECT   DC    CL8'SELECT  '               Service Select
BROWSE   DC    CL8'BROWSE  '               Service BROWSE
EDIT     DC    CL8'EDIT    '               Service EDIT
TBDISPL  DC    CL8'TBDISPL '               Service TBDISPL
TBCREATE DC    CL8'TBCREATE'               Service TBCREATE
TBERASE  DC    CL8'TBERASE '               Service TBERASE
TBADD    DC    CL8'TBADD   '               Service TBADD
TBMOD    DC    CL8'TBMOD   '               Service TBMOD
TBPUT    DC    CL8'TBPUT   '               Service TBPUT
TBGET    DC    CL8'TBGET   '               Service TBGET
TBSKIP   DC    CL8'TBSKIP  '               Service TBSKIP
TBDELETE DC    CL8'TBDELETE'               Service TBDELETE
TBTOP    DC    CL8'TBTOP   '               Service TBTOP
TBBOTTOM DC    CL8'TBBOTTOM'               Service TBBOTTOM
TBSORT   DC    CL8'TBSORT  '               Service TBSORT
TBEND    DC    CL8'TBEND   '               Service TBEND
TBCLOSE  DC    CL8'TBCLOSE '               Service TBCLOSE
TBEXIST  DC    CL8'TBEXIST '               Service TBEXIST
TBQUERY  DC    CL8'TBQUERY '               Service TBQUERY
TBSTATS  DC    CL8'TBSTATS '               Service TBSTATS
TBSCAN   DC    CL8'TBSCAN  '               Service TBSCAN
TBSARG   DC    CL8'TBSARG  '               Service TBSARG
VGET     DC    CL8'VGET    '               Service VGET
VPUT     DC    CL8'VPUT    '               Service VPUT
GETMSG   DC    CL8'GETMSG  '               Service GETMSG
SETMSG   DC    CL8'SETMSG  '               Service SETMSG
ERRORS   DC    CL8'ERRORS  '               kw ERRORS
RETURN   DC    CL8'RETURN  '               kw RETURN
LOCK     DC    CL8'LOCK    '               kw LOCK
SAVE     DC    CL8'SAVE    '               kw SAVE
RESTORE  DC    CL8'RESTORE '               kw RESTORE
LINE     DC    CL8'LINE    '               kw LINE
PROFILE  DC    CL8'PROFILE '               kw PROFILE
SHARED   DC    CL8'SHARED  '               kw SHARED
CHAR     DC    CL8'CHAR    '               kw CHAR
ALL      DC    CL8'*       '               kw ALL (*)
NOWRITE  DC    CL8'NOWRITE '               kw NOWRITE
REPLACE  DC    CL8'REPLACE '               kw REPLACE
YES      DC    CL8'YES     '               kw YES
NO       DC    CL8'NO      '               kw NO
B        DC    CL8'        '               kw B as blanks
*
*              END OF ISPFSRV
         POP   PRINT
         MEND
./ ADD NAME=LBISPL
         MACRO
&NAME    LBISPL &ENTRY,&PARMS,&VL
**********************************************************************
*   Macro:  LBISPL    V1R0M00    07/30/2020
*  Author:  Larry Belmontes Jr.
*           https://ShareABitofIT.net/SHRABIT-MACLIB-in-mvs-3-8j
*           Copyright (C) 2020-2021  Larry Belmontes, Jr.
**********************************************************************
.*********************************************************************
.*       LBISPL ISPLINK,(PARM1,PARM2,PARM3,PARM4,PARM5),VL           *
.*********************************************************************
.*       This macro loads a parm address list using LA instruction   *
.*       and BALR to R15                                             *
.*       - Uses R1,R14,R15                                           *
.*       - Uses variables ISPFP1-ISPFP5                              *
.*********************************************************************
*  Disclaimer:
*  ===================================================================
*
*     No guarantee; No warranty; Install / Use at your own risk.
*
*     This software is provided "AS IS" and without any expressed
*  or implied warranties, including, without limitation, the
*  implied warranties of merchantability and fitness for a
*  particular purpose.
*
*     The author requests keeping authors name intact in any
*  modified versions.
*
*     In addition, the author requests readers to submit any
*  code modifications / enhancements and associated comments
*  for consideration into a subsequent release (giving credit
*  to contributor(s)) thus, improving overall functionality
*  and further benefiting the MVS 3.8J hobbyist public domain
*  community.
*
*
         LCLA  &A,&NPARMS
         LCLC  &B
&NPARMS  SETA  N'&PARMS
         AIF   (&A GT 5).TOOMANY
&A       SETA  1
.LP      ANOP
         AIF   (&A GT &NPARMS).BP1
         LA    1,&PARMS(&A)        Parm Addr List  &A
         ST    1,ISPFP&A
&A       SETA  &A+1
         AGO   .LP
.BP1     ANOP
         AIF   ('&VL' NE 'VL').BP2
         OI    ISPFP&NPARMS,X'80'  VL Mark
.BP2     ANOP
         LA    1,ISPFP1            R1 - Addr of PARMS
         L     15,&ENTRY           R15- Entry Point
         BALR  14,15               Branch to Entry Point
         AGO   .ENDME
.TOOMANY ANOP
         MNOTE 'More than 5 parms, max is 5!'
         AGO    .ENDME
.ENDME   ANOP
         MEND
./ ADD NAME=MISCDC
         MACRO
&NAME    MISCDC
         PUSH  PRINT
         PRINT GEN
**********************************************************************
*   Macro:  MISCDC    V1R0M00    07/30/2020
*  Author:  Larry Belmontes Jr.
*           https://ShareABitofIT.net/SHRABIT-MACLIB-in-mvs-3-8j
*           Copyright (C) 2020-2021  Larry Belmontes, Jr.
**********************************************************************
**********************************************************************
*        This macro declares common misc constants                   *
**********************************************************************
*  Disclaimer:
*  ===================================================================
*
*     No guarantee; No warranty; Install / Use at your own risk.
*
*     This software is provided "AS IS" and without any expressed
*  or implied warranties, including, without limitation, the
*  implied warranties of merchantability and fitness for a
*  particular purpose.
*
*     The author requests keeping authors name intact in any
*  modified versions.
*
*     In addition, the author requests readers to submit any
*  code modifications / enhancements and associated comments
*  for consideration into a subsequent release (giving credit
*  to contributor(s)) thus, improving overall functionality
*  and further benefiting the MVS 3.8J hobbyist public domain
*  community.
*
*
QUOTES   DC    C'"'                Double quotes
APSTROFE DC    C''''               Apostrophe
*
*              END OF MISCDC
         POP   PRINT
         MEND
./ ADD NAME=MOVEC
         MACRO
&NAME    MOVEC &P
**********************************************************************
*   Macro:  MOVEC     V1R0M00    07/30/2020
*  Author:  Larry Belmontes Jr.
*           https://ShareABitofIT.net/SHRABIT-MACLIB-in-mvs-3-8j
*           Copyright (C) 2020-2021  Larry Belmontes, Jr.
**********************************************************************
.*********************************************************************
.*       Macro Description:                                          *
.*       ------------------                                          *
.*       o  Move data string starting at R6 and augmenting R6 and R8 *
.*          by length of string moved.                               *
.*          by 1 for each byte moved.                                *
.*       o  &P must start and end with apostrophes.                  *
.*       o  &P length must be >0 and <= 42 bytes with single quotes. *
.*       o  MOVEI must be executed to set R6 and R8 prior to using   *
.*          this macro                                               *
.*          - R6=Current Address of &P as pointer                    *
.*          - R8=Current Length  of &P as bytes moved into &P        *
.*                                                                   *
.*       Examples:                                                   *
.*       ---------                                                   *
.*       MOVEC 'string data in quotes'                               *
.*                                                                   *
.*       - Uses R6,R8                                                *
.*********************************************************************
*  Disclaimer:
*  ===================================================================
*
*     No guarantee; No warranty; Install / Use at your own risk.
*
*     This software is provided "AS IS" and without any expressed
*  or implied warranties, including, without limitation, the
*  implied warranties of merchantability and fitness for a
*  particular purpose.
*
*     The author requests keeping authors name intact in any
*  modified versions.
*
*     In addition, the author requests readers to submit any
*  code modifications / enhancements and associated comments
*  for consideration into a subsequent release (giving credit
*  to contributor(s)) thus, improving overall functionality
*  and further benefiting the MVS 3.8J hobbyist public domain
*  community.
*
*
         LCLA  &A,&B,&X
         LCLC  &C,&D,&PD
&A       SETA  K'&P          Length of VAR
&B       SETA  &A-2          Minus quotes
&C       SETC  '&P'(1,1)     1st  position value
&D       SETC  '&P'(&A,1)    Last position value
&PD      SETC  '&P'(2,&A-2)    &P Content
&X       SETA  2
.CHK2QT  ANOP
         AIF   (&X GT &A-2).CONT0
         AIF   ('&P'(&X,2) EQ '''''').FND2QT
&X       SETA  &X+1
         AGO    .CHK2QT
.FND2QT  ANOP
&B       SETA  &B-1
&X       SETA  &X+2
         AGO    .CHK2QT
.CONT0   ANOP
         AIF   (&A LT 3).TOOSHRT
         AIF   (&A GT 42).TOOLONG
         AIF   ('&C' NE '''').NOQINB
         AIF   ('&D' NE '''').NOQINE
&NAME    MVC   0(&B,R6),=C&P
         LA    6,&B.(6)               adj addr
         LA    8,&B.(8)               adj len
         MNOTE 'Moving &B bytes from string to R6 pointer'
         AGO    .ENDME
.TOOSHRT ANOP
         MNOTE 12,'String content must be > 0 bytes'
         AGO    .ENDME
.TOOLONG ANOP
         MNOTE 12,'String content > 40 bytes'
         AGO    .ENDME
.NOQINB  ANOP
         MNOTE 12,'String must start with apostrophe'
         AGO    .ENDME
.NOQINE  ANOP
         MNOTE 12,'String must end with apostrophe'
         AGO    .ENDME
.ENDME   ANOP
         MEND
./ ADD NAME=MOVEI
         MACRO
&NAME    MOVEI &P,&M
**********************************************************************
*   Macro:  MOVEI     V1R0M00    07/30/2020
*  Author:  Larry Belmontes Jr.
*           https://ShareABitofIT.net/SHRABIT-MACLIB-in-mvs-3-8j
*           Copyright (C) 2020-2021  Larry Belmontes, Jr.
**********************************************************************
.*********************************************************************
.*       Macro Description:                                          *
.*       ------------------                                          *
.*       o  &P length must be >0 and <= 256 bytes.                   *
.*       o  If &M is blank or 'INIT' Initialize R6 and R8            *
.*          - Initialize R6 and R8 for use in MOVEn macros           *
.*          - R6=Current Address of &P as pointer                    *
.*          - R8=Current Length  of &P as bytes moved into &P        *
.*       o  If &M is 'INIT' or 'ONLY'                                *
.*          - Initialize &P to spaces (x'40')                        *
.*       o  Data moves starting at PTR (R6) and R8 augments by 1 for *
.*          each byte.                                               *
.*                                                                   *
.*       Examples:                                                   *
.*       ---------                                                   *
.*       MOVEI VAR           Init R6=addr of VAR, R8=0  VAR=?        *
.*       MOVEI VAR,INIT      Init R6=addr of VAR, R8=0  VAR=spaces   *
.*       MOVEI VAR,ONLY      Init VAR=spaces                         *
.*                                                                   *
.*       - Uses R6,R8                                                *
.*********************************************************************
*  Disclaimer:
*  ===================================================================
*
*     No guarantee; No warranty; Install / Use at your own risk.
*
*     This software is provided "AS IS" and without any expressed
*  or implied warranties, including, without limitation, the
*  implied warranties of merchantability and fitness for a
*  particular purpose.
*
*     The author requests keeping authors name intact in any
*  modified versions.
*
*     In addition, the author requests readers to submit any
*  code modifications / enhancements and associated comments
*  for consideration into a subsequent release (giving credit
*  to contributor(s)) thus, improving overall functionality
*  and further benefiting the MVS 3.8J hobbyist public domain
*  community.
*
*
         LCLA  &A
         LCLC  &C
&A       SETA  L'&P          Length of VAR
&C       SETC  '&NAME'       Label
         AIF   (&A LE 0).TOOSHRT
         AIF   (&A GT 256).TOOLONG
         AIF   ('&M' EQ '').RINIT
         AIF   ('&M' EQ 'INIT').RINIT
         AIF   ('&M' EQ 'ONLY').VARINIT
         MNOTE 12,'Parm 2 must be ONLY'
         AGO    .ENDME
.RINIT   ANOP
&NAME    LA    6,&P                  Addr of String
         LA    8,0                   Length of String
         MNOTE 'Set R6 and R8 for &P'
&C       SETC   ''
         AIF   ('&M' EQ 'INIT').ENDME
.VARINIT ANOP
&C       MVI   &P,C' '               Blank TEXT
         AIF   (&A EQ 1).BPMVC
         MVC   &P+1(L'&P-1),&P
.BPMVC   ANOP
         MNOTE 'Blank &A bytes for &P'
         AGO    .ENDME
.TOOSHRT ANOP
         MNOTE 12,'&P must be > 0 bytes'
         AGO    .ENDME
.TOOLONG ANOP
         MNOTE 12,'&P length > 256 bytes'
         AGO    .ENDME
.ENDME   ANOP
         MEND
./ ADD NAME=MOVER
         MACRO
&NAME    MOVER &P,&LL
**********************************************************************
*   Macro:  MOVER     V1R0M00    07/30/2020
*  Author:  Larry Belmontes Jr.
*           https://ShareABitofIT.net/SHRABIT-MACLIB-in-mvs-3-8j
*           Copyright (C) 2020-2021  Larry Belmontes, Jr.
**********************************************************************
.*********************************************************************
.*       Macro Description:                                          *
.*       ------------------                                          *
.*       o  Move data from &P starting at R6 to last non-blank byte  *
.*          augmenting R6 and R8 by 1 for each byte moved.           *
.*       o  &P length defaults to L'&P or value of &LL               *
.*       o  &LL must be numeric, if specified.                       *
.*       o  &P length must be >0 and <= 256 bytes.                   *
.*       o  MOVEI must be executed to set R6 and R8 prior to using   *
.*          this macro                                               *
.*          - R6=Current Address of &P as pointer                    *
.*          - R8=Current Length  of &P as bytes moved into &P        *
.*                                                                   *
.*       Examples:                                                   *
.*       ---------                                                   *
.*       MOVER PARM           Move PARM for length of PARM           *
.*       MOVER PARM,20        Move PARM for length of 20             *
.*                                                                   *
.*       - Uses R6,R8                                                *
.*       - Uses R3,R4,R7 for RTRIM subroutine                        *
.*********************************************************************
*  Disclaimer:
*  ===================================================================
*
*     No guarantee; No warranty; Install / Use at your own risk.
*
*     This software is provided "AS IS" and without any expressed
*  or implied warranties, including, without limitation, the
*  implied warranties of merchantability and fitness for a
*  particular purpose.
*
*     The author requests keeping authors name intact in any
*  modified versions.
*
*     In addition, the author requests readers to submit any
*  code modifications / enhancements and associated comments
*  for consideration into a subsequent release (giving credit
*  to contributor(s)) thus, improving overall functionality
*  and further benefiting the MVS 3.8J hobbyist public domain
*  community.
*
*
         LCLA  &A
         LCLC  &C
&C       SETC  T'&P          Type of VAR
         AIF   ('&C' EQ 'U').UNDEF
         AGO    .DEF
.UNDEF   ANOP
         MNOTE 'MOVEI, Undefined reference &P'
         MNOTE 'MOVEI, Using length of &P'
         AIF   ('&LL' GT '').SETLLL
         AGO    .STRT00
.SETLLL  ANOP
.*       AIF   (&LL GT &A).TO2LONG
&A       SETA  &LL         Length of OVERRIDE LENGTH
         AIF   (&A LE 0).TOOSHRT
         AIF   (&A GT 256).TOOLONG
         AGO    .STRT00
.*
.*
.DEF     ANOP
&A       SETA  L'&P          Length of VAR
         AIF   ('&LL' GT '').SETLLL2
         AGO    .SETLLL3
.SETLLL2 ANOP
.*       AIF   (&LL GT &A).TO2LONG
&A       SETA  &LL         Length of OVERRIDE LENGTH
.SETLLL3 ANOP
         AIF   (&A LE 0).TOOSHRT
         AIF   (&A GT 256).TOOLONG
.*
.*
.STRT00  ANOP
&NAME    LA    3,&P                  Addr of String
         AIF   ('&C' EQ 'U').SETUND
.SETDEF  ANOP
         LA    4,&A                  Override Length of String
         AGO    .SETCONT
.SETUND  ANOP
         LA    4,L'&P                Length of String
.SETCONT ANOP
         BAL   7,RTRIM               RTRIM PCNDSN
         MNOTE 'RTRIM, move 1-&A bytes to ptr R6, R8=cur len'
           MNOTE '       from &P type(&C)'
         AGO    .ENDME
.TOOSHRT ANOP
         MNOTE 12,'&P content must be > 0 bytes'
         AGO    .ENDME
.TOOLONG ANOP
         MNOTE 12,'&P content > 256 bytes'
         AGO    .ENDME
.TO2LONG ANOP
         MNOTE 12,'OVR LEN of &LL > &A bytes'
         AGO    .ENDME
.NOTCHAR ANOP
.*         MNOTE 12,'&P not character type (&C)'
         AGO    .ENDME
.ENDME   ANOP
         MEND
./ ADD NAME=MOVEV
         MACRO
&NAME    MOVEV &P,&OL
**********************************************************************
*   Macro:  MOVEV     V1R0M00    07/30/2020
*  Author:  Larry Belmontes Jr.
*           https://ShareABitofIT.net/SHRABIT-MACLIB-in-mvs-3-8j
*           Copyright (C) 2020-2021  Larry Belmontes, Jr.
**********************************************************************
.*********************************************************************
.*       Macro Description:                                          *
.*       ------------------                                          *
.*       o  Move data from &P starting at R6 and augmenting R6 and R8*
.*          by length of &P.                                         *
.*          by 1 for each byte moved.                                *
.*       o  &P length defaults to L'&P or value of &OL               *
.*       o  &OL must be numeric, if specified.                       *
.*       o  &P length must be >0 and <= 256 bytes.                   *
.*       o  MOVEI must be executed to set R6 and R8 prior to using   *
.*          this macro                                               *
.*          - R6=Current Address of &P as pointer                    *
.*          - R8=Current Length  of &P as bytes moved into &P        *
.*                                                                   *
.*       Examples:                                                   *
.*       ---------                                                   *
.*       MOVEV PARM           Move PARM for length of PARM           *
.*       MOVEV PARM,20        Move PARM for length of 20             *
.*                                                                   *
.*       - Uses R6,R8                                                *
.*********************************************************************
*  Disclaimer:
*  ===================================================================
*
*     No guarantee; No warranty; Install / Use at your own risk.
*
*     This software is provided "AS IS" and without any expressed
*  or implied warranties, including, without limitation, the
*  implied warranties of merchantability and fitness for a
*  particular purpose.
*
*     The author requests keeping authors name intact in any
*  modified versions.
*
*     In addition, the author requests readers to submit any
*  code modifications / enhancements and associated comments
*  for consideration into a subsequent release (giving credit
*  to contributor(s)) thus, improving overall functionality
*  and further benefiting the MVS 3.8J hobbyist public domain
*  community.
*
*
         LCLA  &A,&B
&A       SETA  L'&P          Length of VAR
&B       SETA  K'&OL         Count  of VAR
         AIF   (&A GT 256).TOOLONG
         AIF   (&B GT 0).GOTOL
&B       SETA  &A
         AGO    .CONT01
.GOTOL   ANOP
         AIF   (&B GT 3).OL2BIG
         AIF   (&OL GT 256).OL2BIG2
&B       SETA  &OL
.CONT01  ANOP
&NAME    MVC   0(&B,6),&P
         LA    6,&B.(6)               adj addr
         LA    8,&B.(8)               adj len
         MNOTE 'Moving &B bytes from &P to R6 pointer'
         AGO    .ENDME
.OL2BIG  ANOP
         MNOTE 12,'Override Length > 3 digits'
         AGO    .ENDME
.OL2BIG2 ANOP
         MNOTE 12,'Override Length > 256'
         AGO    .ENDME
.TOOLONG ANOP
         MNOTE 12,'&P length > 256 bytes'
         AGO    .ENDME
.ENDME   ANOP
         MEND
./ ADD NAME=RDTECOMA
         MACRO
&NAME    RDTECOMA
         PUSH  PRINT
         PRINT GEN
**********************************************************************
*   Macro:  RDETCOMA  V1R0M00    07/30/2020
*  Author:  Larry Belmontes Jr.
*           https://ShareABitofIT.net/SHRABIT-MACLIB-in-mvs-3-8j
*           Copyright (C) 2020-2021  Larry Belmontes, Jr.
**********************************************************************
**********************************************************************
*     Date-Time-Environment Communications Area                      *
**********************************************************************
*                                                                    *
*     Representation of date-time-environment result data:           *
*                                                                    *
*     0        1         2         3         4                       *
*     123456789012345678901234567890123456789012345                  *
*     +---+----+----+----+----+----+----+----+----+                  *
*     12/31/2001.365 10:11:12:45December 1Monday                     *
*     MM/DD/CCYY.JJJ HH:MM:SS:THLLLLLLLLLNWWWWWWWWW                  *
*                                                                    *
*     4   5         6         7         8                            *
*     67890123456789012345678901234567890                            *
*     +---+----+----+----+----+----+----+                            *
*     LARRY01 ILKJACCTTSOLOGONTSOFGISPARM                            *
*     Jobname StepnameProcstepEnvirParmty                            *
*                                                                    *
*     NOTE:  This macro should be in sync with                       *
*     -----  COBOL copybook, RDTECOMC.                               *
*                                                                    *
**********************************************************************
*  Disclaimer: