//EDIT JOB (JOB),
//             'INSTALL EDIT',
//             CLASS=A,
//             MSGCLASS=A,
//             MSGLEVEL=(1,1),
//             USER=IBMUSER,
//             PASSWORD=SYS1
//* Create temp dataset for objects
//IEFBR14 EXEC PGM=IEFBR14
//OBJ      DD  DSN=&&OBJ,UNIT=SYSDA,
//             SPACE=(CYL,(1,1,5)),
//             DCB=(RECFM=FB,LRECL=80,BLKSIZE=3200),
//             DISP=(,PASS,DELETE)
//MACLIB   EXEC PGM=PDSLOAD
//STEPLIB  DD  DSN=SYSC.LINKLIB,DISP=SHR
//SYSPRINT DD  SYSOUT=*
//SYSUT2   DD  DSN=&&MACLIBS,UNIT=SYSDA,
//             DISP=(,PASS,DELETE),
//             SPACE=(TRK,(04,02,02)),
//             DCB=(RECFM=FB,LRECL=80,BLKSIZE=32000,DSORG=PS)
//SYSUT1   DD  DATA,DLM=@@
./ ADD NAME=SYCONVHX
         MACRO
&NAME    SYCONVHX &IN=,&OUT=,&L=
.*       USER MACRO
.*       CONVERT HEXADECIMAL TO EBCDIC NOTATION
.*       AT LEAST 1 BYTE MAX. 7 BYTES
.*       WRITTEN 750902
         GBLC  &SYPRTX1,&SYPRTX2
         LCLC  &SYMBOL
         AIF   (T'&IN EQ 'O' OR T'&OUT EQ 'O').ERROR5
         AIF   ('&SYPRTX1' NE '').CONT01
&SYPRTX1 SETC  'IHB&SYSNDX.A'       WORKAREA
&SYPRTX2 SETC  'IHB&SYSNDX.B'       CONSTANT
.CONT01  AIF   (T'&L NE 'N').ERROR1
         AIF   ('&L'(1,1) EQ '(' OR '&L'(K'&L,1) EQ ')').ERROR2
         AIF   (&L LT 1 OR &L GT 7).ERROR2
         AIF   ('&IN'(1,1) EQ '(').INREG1
         AIF   (T'&IN EQ 'N').ERROR6
&NAME    UNPK  &SYPRTX1.((&L+1)*2-1),&IN.(&L+1) EXPAND EACH BYTE
         AGO   .CONT02
.INREG1  AIF   (N'&IN EQ 1).INREG2
&SYMBOL  SETC  'IN'
         AGO   .ERROR3
.INREG2  ANOP
&NAME    UNPK  &SYPRTX1.((&L+1)*2-1),0(&L+1,&IN(1))
.CONT02  NC    &SYPRTX1.(&L*2),&SYPRTX2     RESET HIGH ORDER DIGITS
         TR    &SYPRTX1.(&L*2),=C'0123456789ABCDEF'
         AIF   ('&OUT'(1,1) EQ '(').OUTREG1
         AIF   (T'&OUT EQ 'N').ERROR7
         MVC   &OUT.(&L*2),&SYPRTX1        MOVE TO USER FIELD
         AGO   .CONT03
.OUTREG1 AIF   (N'&OUT EQ 1).OUTREG2
&SYMBOL  SETC  'OUT'
         AGO   .ERROR3
.OUTREG2 AIF   ('&OUT' EQ '(0)').ERROR4
         AIF   (T'&OUT EQ 'N').OUTREG3
         MNOTE 'IF LENGTH ERROR, REG 0 WAS SYMBOLICLY ASSIGNED'
         MVC   0(-1+&OUT(1),0),0(0)  *** DUMMY MVC TO TEST IF R 0
         ORG   *-6                        WAS SPECIFIED ***
         AGO   .OUTREG4
.OUTREG3 AIF   (&OUT(1) EQ 0).ERROR4
.OUTREG4 MVC   0(&L*2,&OUT(1)),&SYPRTX1
.CONT03  AIF   ('&SYPRTX1'(4,4) NE '&SYSNDX').DONE
         B     *+34
&SYPRTX1 DS    CL15                       WORKAREA
&SYPRTX2 DC    15X'0F'               CONSTANT FO NC INSTR.
         AGO   .DONE
.*       ERROR MESSAGE BLOCK
.ERROR1  MNOTE 12,'LENGTH OPERAND MUST BE A SELF DEFINING TERM'
         MEXIT
.ERROR2  MNOTE 12,'INVALID LENGTH SPECIFIED'
         MEXIT
.ERROR3  MNOTE 12,'SUBLIST NOTATION FOUND ON SYMBOL ''&SYMBOL''- NOT ALX
               LOWED'
         MEXIT
.ERROR4  MNOTE 12,'REGISTER 0 IS AN INVALID ASSIGNMENT'
         MEXIT
.ERROR5  MNOTE 12,'REQUIRED PARAMETER ''IN'' OR ''OUT'' MISSING'
         MEXIT
.ERROR6  MNOTE 12,'INVALID SPECIFICATION FOR PARAMETER ''IN'''
         MEXIT
.ERROR7  MNOTE 12,'INVALID SPECIFICATION FOR PARAMETER ''OUT'''
.DONE    MEXIT
.*
         MEND
@@
//ASM     PROC MEMBER=DUMMY,
//             ASMPARM=''
//ASM     EXEC PGM=IFOX00,PARM='OBJ,NODECK,LINECOUNT(51)&ASMPARM'
//SYSPRINT DD  SYSOUT=*
//SYSUT1   DD  UNIT=SYSDA,SPACE=(3200,(100,200))
//SYSUT2   DD  UNIT=SYSDA,SPACE=(3200,(100,200))
//SYSUT3   DD  UNIT=SYSDA,SPACE=(3200,(100,200))
//SYSGO    DD  DSN=&&OBJ(&MEMBER),DISP=OLD
//SYSLIB   DD  DSN=&&MACLIBS,DISP=OLD
//         DD  DSN=SYS1.MACLIB,DISP=SHR
//         DD  DSN=SYS1.AMODGEN,DISP=SHR
//SYSIN    DD  DUMMY
//        PEND
//TSTVS  EXEC ASM,MEMBER=TSTVS
//ASM.SYSIN DD DATA,DLM=@@
TSTVS    TITLE 'D Y N A M I C CONSOLE MONITOR'
*---------------------------------------------------------------------*
*                                                                     *
* PROGRAM:                  TSTVS                                     *
* FUNCTION:                 Line-editor from the operator console     *
* PURPOSE:                  Edit crucial PDS members if the           *
*                           SUBSYSTEMS aren't available               *
*                           and create and submit jobs if necessary.  *
*                           Update of members will be done if the     *
*                           MSG   'EDT200A enter command...' has been *
*                           replied with 'U member' or 'UN member'    *
*                           If replied with 'A member' or 'AN member' *
*                           a new member will be created.             *
*                           If 'UN' or 'AN' specified, TSTVS will     *
*                           prompt you for a linenumber (COLS 73-80)  *
*                           if a new record has been made.            *
*                                                                     *
* PROCESSOR.                ASSEMBER-H VERSION 2/HL-ASM               *
*                                                                     *
* REGISTER ASSIGNMENT.      R0-R1          RESERVED                   *
*                           R2             COUNT REG. NUMBER OF CRDS. *
*                           R3             SAVE REGISTER FOR PARM.    *
*                           R4             ADDRESS RECORD INPUT       *
*                           R5-R8          WORK-REGISTERS             *
*                           R9             THIRD BASE                 *
*                           R10            BASE-REGISTER              *
*                           R11            BASE-REGISTER              *
*                           R12            ADDRESS GETM. AREA         *
*                           R13            ADDRESS SAVE-AREA          *
*                           R14-R15        RESERVED                   *
* AUTHOR.                   Rob Prins - Jan 11, 1977                  *
*        PROGRAM STRUCTURE:                                           *
*                                                                     *
*        -------------        -------------        -------------      *
*        |  MAIN     |        | CHANGE    |        |  INSERT   |      *
*        |  ROUTINE  | <----> | ROUTINE   | <----> |  DEL ROUT.|      *
*        |           |        |           |        |           |      *
*        -------------        -------------        -------------      *
*             |                     |                                 *
*             V                     |                                 *
*        -------------              |                                 *
*        | DEL       |              |                                 *
*        | MEMBERS   |              |                                 *
*        | AND RDDIR |              |                                 *
*        -------------              |                                 *
*                                   |                                 *
*        _______________________________________________________      *
*             |                     |                    |            *
*        -------------        -------------        -------------      *
*        | PRINT     |        |  UPDIPL   |        |  SUBMIT   |      *
*        | ROUTINE   |        |  ROUTINE  |        |  ROUTINE  |      *
*        |           |        |           |        |           |      *
*        -------------        -------------        -------------      *
*        -------------        -------------        -------------      *
*        |  LIST     |        |  LINENUM  |        |   SAVE    |      *
*        |  ROUTINE  |        |   ROUTINE |        |  ROUTINE  |      *
*        |           |        |           |        |           |      *
*        -------------        -------------        -------------      *
*        -------------        -------------        -------------      *
*        |  FIND     |        |           |        |           |      *
*        |  ROUTINE  |        |           |        |           |      *
*        |           |        |           |        |           |      *
*        -------------        -------------        -------------      *
*                                                                     *
*        SUBROUTINES:                                                 *
*                    TSTVSALL:  ALLOCATE THE LIBRARY                  *
*                    TSTVSCOM:  PROCESS THE COMMANDS                  *
*                    TSTVSSEC:  check security                        *
*                                                                     *
*        Note: Assemble TSTVS with SYSPARM(NOSEC) to bypass           *
*              the security check of RACF or ACF2                     *
*                                                                     *
*                                                                     *
*------------------------------------------ (C)-2019 SKYBIRD SYSTEMS -*
         EJECT
*---------------------------------------------------------------------*
*                                                                     *
*        COPYRIGHT 77/01/11, Rob Prins                                *
*        LAST UPDATE 79/11/02  BY ROB PRINS                           *
*        ADD R SUBCOMMAND (REPEAT).                                   *
*        LAST UPDATE AT 79/12/04 BY ROB PRINS:                        *
*        CHANGE THE DESIGN OF TSTVS AND ADD ALLOC COMMAND             *
*                                                                     *
*        LAST UPDATE AT 80/04/22 BY ROB PRINS                         *
*        CHANGE START COMMAND FOR RDRTST FROM:                        *
*        "S RDRTST,M=MEMBERNAME" INTO                                 *
*        "S RDRTST,D=DATASETNAME,M=MEMBERNAME" FOR VS1 AND SVS SUBMIT.*
*        ERROR SOLVED IN UPDIPL ROUTINE        /* 80.08.26 */         *
*                                                                     *
*        LAST UPDATE AT 85/05/13 BY ROB PRINS                         *
*        ADD 'XLST' SUBCOMMAND. THIS COMMAND IS AN EXTENTION OF THE   *
*        LIST SUBCOMMAND. WITH 'XLST' THE WHOLE 80 COLUMS OF THE      *
*        RECORDS WILL BE DISPLAYED.                                   *
*                                                                     *
*        LAST UPDATE AT 86/02/12 BY ROB PRINS                         *
*        ADD 'L' SUBCOMMAND. THIS IS AN ALIAS OF THE 'LIST' SUBCOMMAND*
*        ADD 'R' COMMAND, RENAME OF MEMBERS SYNTAX: 'R MEMBER,NEWNAME'*
*        ADD 'F' SUBCOMMAND, SYNTAX: 'F $STRING$' INITIAL FIND, OR    *
*                'F' REPEAT FIND.                                     *
*        AFTER 'SAVE' SUBCOMMAND, LEAVE SUBCOMMAND MODE.              *
*                                                                     *
*        LAST UPDATE AT 87/04/23 BY ROB PRINS                         *
*        DISPLAY WHOLE LINE AFTER MATCH FOUND IN 'F' SUBCOMMAND       *
*        INSTEAD OF THE FIRST 55 POSITIONS                            *
*        REJECT 'SUBMIT' AND 'PRINT' SUBCOMMAND IF TSTVS HAS STARTED  *
*        VIA OPER.                                                    *
*                                                                     *
*        UPDATE BY ROB PRINS AT 91/12/18                              *
*        RETRY MAXIMUM 6 ABENDS TO PREVENT RECURSIVE ABENDS           *
*        ABEND90A SOLVED AFTER FIRST ABEND913 DURING OPEN             *
*        REJECT 'SUBMIT' AND 'PRINT' SUBCOMMAND IF JOBNAME=EDIT       *
*        SUBCOMMAND 'C ALL,...' ADDED                                 *
*                                                                     *
*        Update by Rob Prins at dec 24,1991 Christmas Supprise        *
*        ACF2 support added: TSTVS will ask for an authorized LOGONID *
*        and password. If the verification is successful, the LOGONID *
*        will be checked for the 'TSTVS' privilege (LIDI2F5)          *
*        If ACF2 is not active, the check will be bypassed and the    *
*        program password will be asked.                              *
*        MAX workspace size increased from 2999 to 3999               *
*                                                                     *
*        Update by Rob Prins at 1992/12/18, Christmas Supprise        *
*        All the ACF2 macro's are deleted and replaced by RACROUTE    *
*        The TSTVS privilege has been replaced by a resource called   *
*        '$TSTVS' in the FACILITY class. So TSTVS can be used in both *
*        an ACF2 or a RACF environment                                *
*        The complete security check is now done in module TSTVSSEC   *
*                                                                     *
*        Update by Rob Prins at Jul 26,1993                           *
*        The "Key" in   "PDSLIST,key" has now a variable length       *
*                                                                     *
*        Update by Rob Prins at Jul 29,1993                           *
*        Add the RENAME command to rename datasets                    *
*        Remove the VS1 support. TSTVS assumes, that the operating    *
*        system is always MVS (ESA)                                   *
*        MSGID's changed from 'JCL' into 'EDT'.                       *
*                                                                     *
*        Update by Rob Prins at Sept 04,2019                          *
*        Remove the LINK to program SYP120, This program is not       *
*        a part of TSTVS, so this LINK is changed into a SVC 34       *
*                                                                     *
*------------------------------------------ (C)-2019 SKYBIRD SYSTEMS -*
         SPACE 2
TSTVS    CSECT
         SAVE  (14,12),,*
         USING TSTVS,R15               GET LOCAL ADDRESSABILITY @911224
         LA    R11,SAVEA                                        @911224
         ST    R13,SAVEA+4                                      @911224
         ST    R11,8(0,R13)                                     @911224
         LR    R13,R11                                          @911224
         B     START                                            @911224
         DS    0F                                               @911224
SAVEA    DC    18F'-1'
         DC    CL8'&SYSDATE',C' ',CL8'&SYSTIME'
START    DS    0H
         DROP  R15                     KILL LOCAL ADDRESSABILITY@911224
         LA    R11,2048(,R13)          Setup second             @911224
         LA    R11,2048(,R11)                      base         @911224
         LA    R10,2048(,R11)          Setup third              @911224
         LA    R10,2048(,R10)                      base         @911224
         LA    R9,2048(,R10)           Setup fourth             @911224
         LA    R9,2048(,R9)                        base         @911224
         USING SAVEA,R13,R11,R10,R9    GET ADDRESSABILITY MODULE@911224
         L     R3,0(,R1)               SAVE PARM
         WTO   'EDT001I TSTVS Version 3.3 - &SYSDATE started',         *
               DESC=2,ROUTCDE=(2,3,7,8,11)                      @930729
         ST    R1,MSGID                save it's msgid          @930729
         CLC   0(2,R3),=H'0'           no parm in exec stmnt?
         BE    TSTVSRAC                BRANCH TO security mod   @921218
         LH    R6,0(,R3)               LOAD LENGTH
         LA    R3,2(,R3)               SKIP LENGTH
         LR    R7,R6
         CH    R6,=H'2'                LENGTH LONGER THAN 2
         BH    MESS                    YES: ERROR MSG AND TAKE DEF
LOOP     CLI   0(R3),C'0'              NUMERIC TEST
         BL    MESS                    TAKE DEFAULTS IF NOT NUMERIC
         LA    R3,1(,R3)
         BCT   R6,LOOP                 BRANCH FOR SECOND TEST
         SR    R3,R7                   RESTORE ADDRESS PARM
         BCTR  R7,0
         EX    R7,COMPPRM
         BNH   MESS                    TAKE DEFAULT ROUTCODES
         MVI   ZZZ-2,X'00'
         EX    R7,PACK1
         CVB   R6,DWB                  CONVERT PARM
         BCTR  R6,0                    NO SHIFT IS ROUTING CODE-1
         XR    R7,R7
         IC    R7,=X'80'               SET HIGH ORDER BIT BITS 24-31
         SLL   R7,8                    SHIFT 8 BITS TO THE LEFT
         SRL   R7,0(R6)                SHIFT TO CORRECT ROUTCDE
         STH   R7,ZZZ-2                STORE
         STH   R7,BBB-4                  ROUTING
         STH   R7,CCC-4                     CODES
         STH   R7,DDD-4                       IN
         STH   R7,FFF-4                         WTOR
         STH   R7,GGG-4                           EXPANSIONS
         STH   R7,HHH-4
         STH   R7,III-4
         STCM  R7,3,PARMROUT
         B     TSTVSRAC                BRANCH TO PASSWORD ROUT. @921218
MESS     DS    0H
         LA    R1,MSG99
         MVC   MSG99+4(60),MSG03       MSG EDT007E (DEFAULT ROUTCDE)
         WTO   MF=(E,(1))
         B     TSTVSRAC                                         @921218
COMPPRM  CLC   0(0,R3),=C'00'          EXECUTE ONLY
*---------------------------------------------------------------------*
* first call 'TSTVSSEC' to check the security
*---------------------------------------------------------------------*
TSTVSRAC DS    0H                                               @921218
         EXTRACT ADDRTIOT,FIELDS=TIOT  OBTAIN TIOT
         L     R3,ADDRTIOT             TIOT ADDRESS IN REG 3
         CLC   0(8,R3),=CL8'EDIT'      JOBNAME IS 'EDIT'        @911218
         BNE   TSTVSC                  NO: BRANCH               @911224
         OI    SW02,$OPER              MARK IT
TSTVSC   DS    0H                                               @921218
*---------------------------------------------------------------------*
*
*        If you want to bypass the security check with RACF or ACF2
*        please assemble TSTVS with SYSPARM(NOSEC)
*
*---------------------------------------------------------------------*
         AIF   ('&SYSPARM' EQ 'NOSEC').NOSEC
*        B     TSTVSOK                 #### BYPASS CHECK
         CALL  TSTVSSEC,((3))          Do first the sec. check  @921218
         LTR   R15,R15                 OK ??                    @921218
         BZ    TSTVSOK                 yes: use the facility    @921218
         L     R13,4(,R13)             pickup callers savearea  @921218
         RETURN (14,12),RC=8           terminate ....           @921218
.NOSEC   ANOP
TSTVSOK  DS    0H                                               @921218
         GETMAIN RU,LV=320000
         LR    R12,R1
         ST    R12,SAVEGETM            SAVE BEGINADDRESS
         STM   R9,R13,RECOVER          SAVE REGISTERS FOR ESTAE
         ESTAE STAEEXIT                ESTABLISH ESTAE ROUTINE
TSTVSST  DS    0H
         L     R4,SAVEGETM             ADDRESS OF WORKAREA
         L     R5,=A(320000)           LENGTH
         LR    R6,R4                   SAME ADDRESS IN R6
         L     R7,=X'FF000000'         PADDING CHAR X'FF'
         MVCL  R4,R6                   FILLUP AREA WITH X'FF'
         L     R12,SAVEGETM            RESTORE BEGINADDRESS
         CALL  TSTVSCOM,(PARM)         CALL COMMAND PROCESSOR
         B     BRLIST(R15)
BRLIST   B     TSTVSUPD                Update member
         B     TSTVSNEW                New member
         B     TSTVSDEL                Delete the member
         B     TSTVSUPD                Update the member
         B     TSTVSAL                 allocate library
         B     TSTVSEOJ                end of TSTVS
         B     TSTVSREN                Rename a dataset         @930729
TSTVSUPD DS    0H
         BAL   R14,RDDIR               TEST IF MEMBER PRESENT
         CLC   PARM33R(7),=C'PDSLIST'  LISTPDS ?
         BE    TSTVSST                 ASK FOR MEMBER-NAME.
         TM    SW01,SW2                MEMBER PRESENT IN DIRECTORY
         BNO   UPDERR                  GIVE ERROR MSG
         RDJFCB OUTDCB
         MVC   JFCB+44(8),PARM33M
         OI    JFCB+86,X'01'           MARK 'MEMBER IN PDS'
         OPEN  (OUTDCB),TYPE=J
         XR    R2,R2
         OI    SW02,$OPEN              MARK OPENED *RETRY ROUT* @911218
LOAD     DS    0H
         CH    R2,=H'3999'             MAXIMUM LINES REACHED ?
         BE    LOAD9                   YES: BRANCH
         GET   OUTDCB
         LR    R4,R1
         MVC   0(80,R12),0(R4)         STORE RECORD INTO WORKSPACE
         LA    R12,80(,R12)            Next entry in workspace
         LA    R2,1(,R2)               Count record
         B     LOAD
LOAD9    DS    0H
         CLOSE (OUTDCB)
         FREEPOOL OUTDCB               FREE THE BUFFERS
         NI    SW02,255-$OPEN          OUTDCB closed now        @911218
         ST    R2,REG2                 Save GR2
         B     CHANGE
UPDERR   MVC   MSG99+4(60),MSG05
         LA    R1,MSG99
         WTO   MF=(E,(1))              WRITE ERROR MSG EDT010E
         B     TSTVSST                 ASK FOR COMMAND
TSTVSNEW DS    0H
         L     R12,SAVEGETM
         XR    R2,R2                   ZERO IN COUNT REG
TSTVSINP DS    0H
         XC    ECB1,ECB1
         MVC   CARD(80),BLANKS
         WTOR  'EDT003A Enter data, ''SAVE'' OR ''SUBMIT''',           X
               REPLY,72,ECB1,ROUTCDE=(2,3)
BBB      WAIT  ECB=ECB1
         OC    REPLY(72),BLANKS        CHANGE IT TO CAPITALS
         CLC   REPLY(4),=C'SAVE'       SAVE WORKSPACE IN MEMBER ?
         BE    TSTVSCLS                YES: BRANCH
         CLC   REPLY(6),=C'SUBMIT'     SUBMIT ?
         BE    TSTVSCLS                YES: SAVE AND SUBMIT
         OI    SW01,$CHANGED           CHANGE SWITH ON
         TM    PARMSW,NBRS
         BNO   NOSEQ
TSTVSSEQ XC    ECB1,ECB1
         WTOR  'EDT004A Enter sequence number ',                       X
               REPLY2,8,ECB1,ROUTCDE=(2,3)
CCC      WAIT  ECB=ECB1
         LA    R7,8                    MAXIMUM REPLY LENGTH
         XR    R6,R6                   REG 6 ZERO
         LA    R8,REPLY2               LOAD REPLY ADDRESS
SEQ002   DS    0H
         CLI   0(R8),X'40'             Blank found ?
         BE    SEQ007
         CLI   0(R8),X'F0'             NUMERIC TEST
         BL    SEQ004
         CLI   0(R8),X'F9'             NUMERIC TEST
         BH    SEQ004
         LA    R8,1(,R8)               Load next character
         LA    R6,1(,R6)               Length = length+1
         BCT   R7,SEQ002
         B     SEQ007
SEQ004   DS    0H                      Error found in seq. nbr
         LA    R1,MSG99
         MVC   MSG99+4(60),MSG04
         WTO   MF=(E,(1))              WRITE ERROR MSG EDT008E
SEQ005   DS    0H
         MVC   REPLY2(8),BLANKS        CLEAR REPLY AREA
         B     TSTVSSEQ                ASK FOR NEW CARDNUMBER
SEQ007   DS    0H
         LTR   R6,R6                   TEST IF LENGTH ZERO
         BZ    SEQ005                  BRANCH TO WTOR
         BCTR  R6,0                    FOR EX INSTRUCTION
         EX    R6,PACK2                PACK CARDNUMBER
         UNPK  REPLY2(8),DWB
         OI    REPLY2+7,X'F0'          CLEAR SIGN
NOSEQ    TM    PARMSW,UPDT
         BNO   TSTVSI9
         MVC   0(80,R12),CARD
         B     CHANGE
TSTVSI9  DS    0H
         LA    R2,1(,R2)               Number of lines in workspace
         MVC   0(80,R12),CARD
         LA    R12,80(,R12)
         B     TSTVSINP
TSTVSCLS DS    0H
         BAL   R14,SAVE
         CLC   =C'SAVE ',REPLY         Save member requested ?  @930729
         BE    TSTVSST                 YES: end of TSTVS
         BAL   R14,SUB                 Else: submit first
         B     TSTVSST
TSTVSAL  DS    0H
         CALL  TSTVSALL,(PARM)         Allocate the dataset
         B     TSTVSST
TSTVSREN DS    0H                      Rename a dataset         @930729
         OI    PARMSW,$RENDS           Tell TSTVSALL, that a    @930729
*                                      rename should occur      @930729
         CALL  TSTVSALL,(PARM)         Rename the dataset       @930729
         NI    PARMSW,255-$RENDS       Reset flag               @930729
         B     TSTVSST                                          @930729
TSTVSDEL DS    0H                      DELETE MEMBER OR RENAME MEMBER
         B     DEL
TSTVSEOJ DS    0H                      Pickup workspace
         L     R12,SAVEGETM            LOAD ADDRESS WORKSPACE
         ESTAE 0                       KILL ESTAE ROUTINE
         OI    PARMSW,$UNALL           MARK UNALLOC ONLY BY TSTVSALL
         CALL  TSTVSALL,(PARM)
         FREEMAIN RU,LV=320000,A=(R12)
TSTVSEO2 DS    0H
         LA    R2,MSGID
         DOM   MSG=(2)                 delete the start msg     @930729
         L     R13,4(,R13)             Pickup callers save area
         RETURN (14,12),RC=0           BACK TO OS
PACK1    PACK  DWB,0(1,R3)             PACK ROUTING CODE ** EX ONLY **
PACK2    PACK  DWB,REPLY2(1)           PACK CARD NUMBER ** EX ONLY **
         TITLE 'U P D A T E   R O U T I N E'
CHANGE   DS    0H
         OI    SW02,$SUBMODE           MARK SUB COMMAND MODE
         NI    SW01,X'FF'-$LINEDEL     SW DEL. REQUESTED OFF
         XC    ECB1,ECB1
         MVC   REPLY4(60),BLANKS
         WTOR  'EDT005A Enter subcommand or ''HELP''',REPLY4,60,       X
               ECB1,ROUTCDE=(2,3)
DDD      WAIT  ECB=ECB1
         OC    REPLY4(60),BLANKS       TRANSLATE TO CAPITALS
         CLI   REPLY4,C' '
         BE    CHANGE                  NOTHING REPLIED.
         CLC   REPLY4(4),=C'END '      END OF SUBCOMMAND MODE
         BE    CHEND
         CLC   REPLY4(5),=C'SAVE '     SAVE CONTENTS ?
         BNE   CHEOJ                   NO TEST OTHER SUBCOMMANDS
         BAL   R14,SAVE                SAVE MEMBER
         B     CHEND3                  TERMINATE SUBCOMMAND MODE
CHEOJ    DS    0H
         CLC   REPLY4(3),=C'EOJ'       END OF JOB    ?
         BNE   CHSUB                   NO: TEST OTHER COMMANDS
         OI    SW01,$EOJ               SET FLAG
         B     CHEND                   BRANCH
CHSUB    DS    0H
         CLC   REPLY4(6),=C'SUBMIT'    SUBMIT THE WORKAREA ?
         BNE   CHADD                   NO TEST OTHER FONCTIONS
         OI    SW01,$WKSUBM            INDICATE WKAREA SUBMIT
         BAL   R14,SUB                 SUBMIT THE WORKAREA
         B     CHANGE                  NEW SUBCOMMAND
CHADD    DS    0H
         CLC   REPLY4(4),=C'ADD '      ADD JCL AFTER EOF WORKSPACE
         BNE   CHVFY                   NO: TEST OTHER FUNCTIONS
         LR    R12,R2                  # OF LINES IN WORKSPACE
         MH    R12,=H'80'              X RECORD LENGTH
         A     R12,SAVEGETM            + BEGIN ADRESS WORKSPACE
         NI    PARMSW,X'FF'-UPDT       SUMULATE NEW MEMBER
         B     TSTVSINP                ASK FOR INPUT STATEMENTS
CHVFY    CLI   REPLY4,C'V'             LIST LINE AFTER 'C' COMMAND
         BE    VFY
         CLC   REPLY4(4),=C'HELP'      HELP MSG EDT014A
         BNE   CHNG
         LA    R1,MSG99
         MVC   MSG99+4(60),MSG09
         WTO   MF=(E,(1))
         LA    R1,MSG99
         MVC   MSG99+4(60),MSG10       Write HELP lines
         WTO   MF=(E,(1))
         LA    R1,MSG99
         MVC   MSG99+4(60),MSG11
         WTO   MF=(E,(1))
         MVC   MSG99+4(60),MSG11A
         WTO   MF=(E,MSG99)
         MVC   MSG99+4(60),MSG11B
         WTO   MF=(E,MSG99)
         MVC   MSG99+4(60),MSG11C
         WTO   MF=(E,MSG99)
         MVC   MSG99+4(60),MSG11D
         WTO   MF=(E,MSG99)
         MVC   MSG99+4(60),MSG11E
         WTO   MF=(E,MSG99)
         MVC   MSG99+4(60),MSG11F
         WTO   MF=(E,MSG99)
         MVC   MSG99+4(60),MSG11G
         WTO   MF=(E,MSG99)
         MVC   MSG99+4(60),MSG11H
         WTO   MF=(E,MSG99)
         MVC   MSG99+4(60),MSG11I
         WTO   MF=(E,MSG99)
         MVC   MSG99+4(60),MSG11J
         WTO   MF=(E,MSG99)
         MVC   MSG99+4(60),MSG11K
         WTO   MF=(E,MSG99)
         MVC   MSG99+4(60),MSG11L
         WTO   MF=(E,MSG99)
         MVC   MSG99+4(60),MSG11M
         WTO   MF=(E,MSG99)
         MVC   MSG99+4(60),MSG11N
         WTO   MF=(E,MSG99)
         MVC   MSG99+4(60),MSG11O      LAST HELP LINE
         WTO   MF=(E,MSG99)
         B     CHANGE
CHNG     CLC   REPLY4(4),=C'LIST'      LIST WORKSPACE ? (FIRST 55 POS)
         BNE   CHNGL                   NO: TEST OTHER FUNCTIONS
         NI    SW01,255-$XLST          MARK NORMAL LIST
         BAL   R14,LIST                LIST ROUTINE
         B     CHANGE                  ASK FOR NEW SUBCOMMAND
CHNGL    CLC   REPLY4(2),=C'L '        LIST WORKSPACE ? (ALIAS OF LIST)
         BNE   CHNGXLST                NO: TEST OTHER FUNCTIONS
         NI    SW01,255-$XLST          MARK NORMAL LIST
         BAL   R14,LIST                LIST ROUTINE
         B     CHANGE                  ASK FOR NEW SUBCOMMAND
CHNGXLST CLC   REPLY4(4),=C'XLST'      LIST WORKSPACE ? (80 POS)
         BNE   CHNGNUM                 NO: TEST OTHER FUNCTIONS
         OI    SW01,$XLST              MARK EXTENDED LIST
         BAL   R14,LIST                LIST ROUTINE
         B     CHANGE                  ASK FOR NEW SUBCOMMAND
CHNGNUM  CLC   REPLY4(5),=C'RENUM'     CARDNUMBERS IN COLS 73-80 ?
         BE    RENUM                   YES: BRANCH
         CLC   REPLY4(5),=C'UNNUM'     REMOVE CARDNUMBERS ?
         BE    UNNUM                   YES: BRANCH
         CLI   REPLY4,C'C'             UPDATE INPLACE CHAR STRINGS ?
         BNE   CHINS                   NO: TEST OTHER FUNCTIONS
         CLC   =C'ALL',REPLY4+2        'CHANGE ALL' SUBCOMMAND
         BNE   CHSINGLE                NO: CHANGE SINGLE LINE
         LA    R4,1                    START WITH LINE=1
         L     R12,SAVEGETM            LOAD ADDR WORKSPACE
         OI    SW02,$CHALL             MAKE CHANGE ALL COMMAND  @911218
         OI    SW02,$NOMATCH           DEFAULT NO MATCH FOUND   @911218
*--------------------------------------------------------------------*