//VSAMLIST  JOB (TSO),
//             'Install VSAMLIST',
//             CLASS=A,
//             MSGCLASS=A,
//             MSGLEVEL=(1,1),
//             USER=IBMUSER,
//             PASSWORD=SYS1
//*
//A        EXEC ASMFCL,PARM.ASM='LIST,LOAD,NODECK,NOXREF'               00120000
//ASM.SYSIN DD *                                                        00130000
         PRINT OFF                                                      00010000
         MACRO                                                          00020000
&NAME    INIT &BASE=3,&REGS=Y,&PATCH=3,&RENT=N,&SAVE=Y                  00030000
         AIF   ((&BASE LT 13) AND (&BASE GT 1)).N020                    00040000
         MNOTE 12,'INVALID BASE REGISTER'                               00050000
         MEXIT                                                          00060000
.N020    ANOP                                                           00070000
         PUSH  PRINT                                                    00080000
         PRINT ON,GEN                                                   00090000
         EJECT                                                          00100000
&SYSECT  CSECT                                                          00110000
         USING *,15                                                     00120000
         B     BEGIN                                                    00130000
         DC    AL1(24)                                                  00140000
         DC    CL8'&SYSECT'                                             00150000
         DC    CL16'-&SYSDATE-&SYSTIME'                                 00160000
         AIF   ('&RENT' EQ 'Y').N004                                    00170000
MYSAVE   DC    18F'-1'                                                  00180000
.N004    ANOP                                                           00190000
         AIF   ('&PATCH' EQ '0').N005                                   00200000
PATCH    DC    &PATCH.CL8'*PATCH*'                                      00210000
.N005    ANOP                                                           00220000
         AIF   ('&REGS' EQ 'N').N030                                    00230000
         AIF   ('&REGS' EQ 'Y').N010                                    00240000
         MNOTE 4,'REGS OPERAND INVALID. Y SUBSTITUTED'                  00250000
.N010    ANOP                                                           00260000
R0       EQU   0                                                        00270000
R1       EQU   1                                                        00280000
R2       EQU   2                                                        00290000
R3       EQU   3                                                        00300000
R4       EQU   4                                                        00310000
R5       EQU   5                                                        00320000
R6       EQU   6                                                        00330000
R7       EQU   7                                                        00340000
R8       EQU   8                                                        00350000
R9       EQU   9                                                        00360000
R10      EQU   10                                                       00370000
R11      EQU   11                                                       00380000
R12      EQU   12                                                       00390000
R13      EQU   13                                                       00400000
R14      EQU   14                                                       00410000
R15      EQU   15                                                       00420000
.N030    ANOP                                                           00430000
BEGIN    DS   0H                                                        00440000
         STM   14,12,12(13)                                             00450000
         LR    &BASE,15                                                 00460000
         DROP  15                                                       00470000
         USING &SYSECT,&BASE                                            00480000
         AIF   ('&SAVE' EQ 'N').N003                                    00490000
         AIF   ('&RENT' EQ 'Y').N002                                    00500000
         AIF   ('&RENT' EQ 'N').N001                                    00510000
         MNOTE 4,'RENT OPERAND INVALID. N SUBSTITUTED'                  00520000
.N001    ANOP                                                           00530000
         ST    13,MYSAVE+4                                              00540000
         LR    15,13                                                    00550000
         LA    13,MYSAVE                                                00560000
         ST    13,8(15)                                                 00570000
         AGO   .N003                                                    00580000
.N002    ANOP                                                           00590000
         GETMAIN R,LV=72                                                00600000
         ST    13,4(1)                                                  00610000
         ST    1,8(13)                                                  00620000
         LR    13,1                                                     00630000
.N003    ANOP                                                           00640000
         POP   PRINT                                                    00650000
         EJECT                                                          00660000
         MEND                                                           00670000
         PRINT ON                                                       00680000
*  MODULE NAME:         VSAMLIST     (REL. 1.1  08/10/79)               00690000
*                                                                       00700000
*  MODULE DESCRIPTION:  VSAM CATALOG LIST UTILITY - CONTROL MODULE      00710000
*                                                                       00720000
*  RETURN LINKAGE:      RETURN (14,12),RC=(15)                          00730000
*                                                                       00740000
*  LINKAGE TABLE:       NONE - SINGLE ENTRY                             00750000
*                                                                       00760000
*  PARAMETERS:          R1 POINTS TO THE ADDRESS OF THE INPUT PARAMETER 00770000
*                       LIST ALIGNED ON A HALF WORD BOUNDARY.           00780000
*                        BYTE 0-1:  LENGTH OF PARAMETER                 00790000
*                        BYTE 2-4:  PARAMETER (ALL OR SUM)              00800000
*                                                                       00810000
*  EXIT:                RC=00 - SUCCESSFUL                              00820000
*                       RC=04 - UNABLE TO OPEN DCB'S                    00830000
*                       RC=08 - ERROR WHILE PROCESSING VSAM CATLG       00840000
*                                                                       00850000
*  MODULE FUNCTION:     AS THE CONTROL MODULE, IT PERFORMS MOST OF THE  00860000
*                       INITIALIZATIONS AND EXTRACT THE VSAM CATALOGS'  00870000
*                       INFORMATIONS FROM THE CONTROL STATEMENTS.       00880000
*                       FOR EACH OF THE VSAM CATALOGS SPECIFIED IN THE  00890000
*                       CONTROL STATEMENTS, THIS MODULE CREATES ONE TO  00900000
*                       THREE REPORTS ACCORDING TO THE INPUT PARAMETER  00910000
*                       SPECIFIED ON THE 'EXEC' CARD.  THEY ARE THE     00920000
*                       VSAM CATALOG SUMMARY, THE VSAM VOLUME CONTENTS  00930000
*                       AND THE VSAM TRACK ALLOCATION MAP.  IF 'ALL'    00940000
*                       IS SPECIFIED, ALL THREE REPORTS ARE PRODUCED    00950000
*                       AND IF AN OPTIONAL DD CARD 'VSAMHIST' IS IN THE 00960000
*                       JCL POINTING TO A DASD DATASET, A HISTORY FILE  00970000
*                       FOR ALL ENTRIES IN THE VSAM CATALOG IS CREATED. 00980000
*                       IF 'SUM' IS SPECIFIED, ONLY THE SUMMARY REPORT  00990000
*                       IS PRODUCED.  THE DEFAULT IS 'ALL'.             01000000
*                                                                       01010000
*  CALLER:              NONE                                            01020000
*                                                                       01030000
*  CALLS:               VSAMLST2, SORT/VSAMLST5                         01040000
*                                                                       01050000
*  SYSTEMS SERVICES:    CALL, CLOSE, DELETE, FREEMAIN, GETMAIN, LOAD,   01060000
*                       OPEN, PUT (QSAM), TIME                          01070000
*                                                                       01080000
*  MODULE ENVIRONMENT:  OS/VS1, OS/VS2                                  01090000
         TITLE 'VSAMLIST --- VSAM CATALOG LIST UTILITY CONTROL MODULE (101100000
               0)'                                                      01110000
*        *-------------------------*                                    01120000
*        *   S A M P L E   J C L   *                                    01130000
*        *-------------------------*                                    01140000
*                                                                       01150000
*  //STEP1  EXEC  PGM=VSAMLIST,PARM=ALL                                 01160000
*  //STEPLIB  DD  DSN=SYS2.LINKLIB,DISP=SHR                             01170000
*  //STEPCAT  DD  DSN=VSAMCAT1,DISP=SHR                                 01180000
*  //          .                                                        01190000
*  //          .                                                        01200000
*  //          .                                                        01210000
*  //         DD  DSN=VSAMCATN,DISP=SHR                                 01220000
*  //SYSABEND DD  SYSOUT=A                                              01230000
*  //MSGFILE  DD  SYSOUT=A,DCB=(RECFM=FBA,LRECL=133,BLKSIZE=1330)       01240000
*  //RPTFIL1  DD  SYSOUT=A,DCB=(RECFM=FBA,LRECL=133,BLKSIZE=1330)       01250000
*  //RPTFIL2  DD  SYSOUT=A,DCB=(RECFM=FBA,LRECL=133,BLKSIZE=1330)       01260000
*  //SYSOUT   DD  SYSOUT=A                                              01270000
*  //SORTIN   DD  DSN=&&DETAIL,DISP=(NEW,DELETE),UNIT=DISK,             01280000
*  //             SPACE=(CYL,(5,5))                                     01290000
*  //SORTWK01 DD  UNIT=DISK,SPACE=(CYL,(3))                             01300000
*  //SORTWK02 DD  UNIT=DISK,SPACE=(CYL,(3))                             01310000
*  //SORTWK03 DD  UNIT=DISK,SPACE=(CYL,(3))                             01320000
*  //*                                                                  01330000
*  //* FOLLOWING OUTPUT FILE IS OPTIONAL.  IF IT POINTS TO A DASD DATA  01340000
*  //* SET AND 'PARM=ALL' IS SPECIFIED ON THE 'EXEC' CARD, A HISTORY    01350000
*  //* FILE FOR VSAM ENTRIES WILL BE CREATED.  PLEASE NOTE THE SPEC'S   01360000
*  //* IN THE DCB.  RECORDS ARE 158 BYTES LONG.                         01370000
*  //VSAMHIST DD  DSN=VSAM.HIST.FILE,DISP=(,PASS),                      01380000
*  //             UNIT=SYSDA,SPACE=(CYL,(2,1)),                         01390000
*  //             DCB=(RECFM=FB,LRECL=158,BLKSIZE=6162)                 01400000
*  //*                                                                  01410000
*  //*  FOLLOWING INPUT FILE IS FOR VSAM CATLG LIST UTIL CONTROL STMTS  01420000
*  //*  '/' INDICATE AN OPTIONAL MASTER PASSWORD FOLLOWS                01430000
*  //*  ALL KEYWORDS SHOULD BE ON COL. 1 THRU 71 OF THE SAME CARD FOR   01440000
*  //*  EACH VSAM CATALOG TO BE LISTED                                  01450000
*  //VCLCNTL  DD  *                                                     01460000
*    LISTCAT  VSAMCAT1 / MSTRPSWD                                       01470000
*       .                                                               01480000
*       .                                                               01490000
*       .                                                               01500000
*    LISTCAT  VSAMCATN                                                  01510000
*  /*                                                                   01520000
         EJECT                                                          01530000
*        *-----------------------------------*                          01540000
*        *   R E G I S T E R   U S A G E S   *                          01550000
*        *-----------------------------------*                          01560000
*                                                                       01570000
*  R0  -  STANDARD LINKAGE                                              01580000
*  R1  -  STANDARD LINKAGE (ADDR OF PARM LIST) & TEMP WORK SPACE        01590000
*  R2  -  TEMP WORK SPACE                                               01600000
*  R3  -  TEMP WORK SPACE                                               01610000
*  R4  -  TEMP WORK SPACE                                               01620000
*  R5  -  TEMP WORK SPACE                                               01630000
*  R6  -  NOT USED                                                      01640000
*  R7  -  NOT USED                                                      01650000
*  R8  -  NOT USED                                                      01660000
*  R9  -  NOT USED                                                      01670000
*  R10 -  NOT USED                                                      01680000
*  R11 -  RETURN ADDR FOR SUBROUTINES                                   01690000
*  R12 -  BASE REG FOR CSECT VSAMLIST                                   01700000
*  R13 -  STANDARD LINKAGE (ADDR OF SAVE AREA)                          01710000
*  R14 -  STANDARD LINKAGE (ADDR TO RETURN)                             01720000
*  R15 -  STANDARD LINKAGE (ADDR OF ENTRY POINT & RETURN CODE)          01730000
         SPACE 5                                                        01740000
VSAMLIST CSECT                                                          01750000
         INIT  BASE=12                                                  01760000
*********************************************************************** 01770000
*                                                                     * 01780000
*  1.0    CONTROL MODULE                                              * 01790000
*                                                                     * 01800000
*     FUNCTION:  CHECK THE INPUT PARAMETER (ALL OR SUM).              * 01810000
*                CHECK THE FILES MSGFILE, RPTFIL1, SORTIN & VCLCNTL.  * 01820000
*                CHECK THE CONTROL STATEMENTS & THEN CALL THE PROCESS * 01830000
*                MODULE FOR EACH CATALOG.                             * 01840000
*                IF 'PARM=ALL' IS SPECIFIED, LINK TO SORT TO PRODUCE  * 01850000
*                THE TWO DETAIL REPORTS.  (SEE PAGE 2)                * 01860000
*                                                                     * 01870000
*     ERRORS:  IF OPEN OF ANY DCB FAILS, PRINT ERROR MESSAGE, SET     * 01880000
*              RETURN CODE AND RETURN.                                * 01890000
*              IF ERROR WHILE PROCESSING ANY VSAM CATALOG, SET        * 01900000
*              ERROR CODE AND PROCESS THE NEXT ONE.                   * 01910000
*                                                                     * 01920000
*********************************************************************** 01930000
         SPACE 3                                                        01940000
VCL10    EQU   *                                                        01950000
         L     R1,0(,R1)                ADDR OF THE PARM LIST           01960000
         LA    R1,0(,R1)                CLEAR THE HIGH ORDER BYTE       01970000
         MVC   PARM9410(5),0(R1)        SAVE THE PARM                   01980000
         CLC   PARM(3),=C'SUM'          IS ONLY THE SUMMARY REQUESTED?  01990000
         BNE   CHKALL                   NO - DO NOT SET 'SUM' SWITCH    02000000
         MVI   RPTSW,X'80'              YES - SET IT FOR SUMMARY ONLY   02010000
         B     INIT1                    AND GO TO INIT PART 1           02020000
         SPACE                                                          02030000
CHKALL   EQU   *                                                        02040000
         CLC   PARM(3),=C'ALL'          ARE ALL THE REPORTS REQUESTED?  02050000
         BNE   BADPARM                  NO - INVALID PARAMETER          02060000
         MVI   RPTSW,X'E0'              YES - SET IT 'ALL'              02070000
         B     INIT1                    AND GO TO INIT PART 1           02080000
         SPACE                                                          02090000
BADPARM  EQU   *                                                        02100000
         MVI   RPTSW,X'E0'              DEFAULT IS 'ALL' - SET SWITCH   02110000
         B     INIT1                    AND GO TO INIT PART 1           02120000
         EJECT                                                          02130000
*        *----------------------------*                                 02140000
*        *  CHECK THE REQUIRED DCB'S  *                                 02150000
*        *----------------------------*                                 02160000
         SPACE                                                          02170000
INIT1    EQU   *                                                        02180000
         OPEN  (MSGFILE,(OUTPUT))                                       02190000
         SPACE                                                          02200000
         TM    MSGFILE+48,X'10'                                         02210000
         BO    MSGDCBOK                                                 02220000
         SPACE                                                          02230000
         MVI   RC,X'04'                 RC=04 - OPEN FAILED FOR MSGFILE 02240000
         B     GOHOME                   RETURN IMMEDIATELY              02250000
         SPACE 2                                                        02260000
MSGDCBOK EQU   *                                                        02270000
         BAL   R11,DATETIME             DATE AND TIME AT THIS POINT     02280000
         MVC   MSG01+44(5),HHMM         TIME = HH:MM                    02290000
         MVC   MSG01+53(8),MMDDYY       DATE = MM/DD/YY                 02300000
         MVI   CNTL,C'1'                SKIP TO TOP OF NEXT PAGE        02310000
         MVC   LINE(L'MSG01),MSG01                                      02320000
         BAL   R11,PUTMSG               WRITE STARTING MESSAGE          02330000
         SPACE                                                          02340000
         OPEN  (RPTFIL1,(OUTPUT))                                       02350000
         SPACE                                                          02360000
         TM    RPTFIL1+48,X'10'                                         02370000
         BO    RP1DCBOK                                                 02380000
         SPACE                                                          02390000
         MVC   ERRDDN(8),RPTFIL1+40     SET DDNAME IN ERROR MESSAGE     02400000
         BAL   R11,ERRDCB               PRINT THE MESSAGE & SET RC=4    02410000
         B     ENDMSG                   PRINT ENDING MESSAGE            02420000
         EJECT                                                          02430000
RP1DCBOK EQU   *                                                        02440000
         TM    RPTSW,X'60'              ARE THE DETAILS REPORTS NEEDED? 02450000
         BZ    SORTINOK                 NO - SKIP THE SORT              02460000
         SPACE                                                          02470000
         OPEN  (SORTIN,(OUTPUT))                                        02480000
         SPACE                                                          02490000
         TM    SORTIN+48,X'10'                                          02500000
         BO    SORTINOK                                                 02510000
         SPACE                                                          02520000
         MVC   ERRDDN(8),SORTIN+40      SET DDNAME IN ERROR MESSAGE     02530000
         BAL   R11,ERRDCB               PRINT THE MESSAGE & SET RC=4    02540000
         B     CLSRPT                   CLEAN IT UP & QUIT              02550000
         SPACE 2                                                        02560000
SORTINOK EQU   *                                                        02570000
         OPEN  (VCLCNTL,(INPUT))                                        02580000
         SPACE                                                          02590000
         TM    VCLCNTL+48,X'10'                                         02600000
         BO    INIT2                    ALL DCB'S ARE OK - INIT PART 2  02610000
         SPACE                                                          02620000
         MVC   ERRDDN(8),VCLCNTL+40     SET DDNAME IN ERROR MESSAGE     02630000
         BAL   R11,ERRDCB               PRINT THE MESSAGE & SET RC=4    02640000
         B     CLSORT                   CLEAN IT UP & QUIT              02650000
         EJECT                                                          02660000
*        *-------------------------------------*                        02670000
*        *  LOAD VSAMLST2, VSAMLST3, VSAMLST4  *                        02680000
*        *-------------------------------------*                        02690000
         SPACE                                                          02700000
INIT2    EQU   *                                                        02710000
         LOAD  EP=VSAMLST2                                              02720000
         ST    R0,EPVCL20               ENTRY PT OF PROCESS MOD (2.0)   02730000
         SPACE                                                          02740000
         LOAD  EP=VSAMLST3                                              02750000
         ST    R0,EPVCL21               ENTRY PT OF SUMMARY MOD (2.1)   02760000
         SPACE                                                          02770000
         TM    RPTSW,X'60'              ARE THE DETAILS REPORTS NEEDED? 02780000
         BZ    INIT3                    NO - THAT'S ALL WE NEED         02790000
         SPACE                                                          02800000
         LOAD  EP=VSAMLST4                                              02810000
         ST    R0,EPVCL22               ENTRY PT OF DETAILS MOD (2.2)   02820000
         EJECT                                                          02830000
*        *--------------------------------------*                       02840000
*        *  GET WORK AREAS AND INITIALIZE THEM  *                       02850000
*        *--------------------------------------*                       02860000
         SPACE                                                          02870000
INIT3    EQU   *                                                        02880000
         GETMAIN R,LV=4096              GIMME 4K                        02890000
         SPACE                                                          02900000
         ST    R1,WORKADDR              SAVE ADDR OF AREA GOTTEN        02910000
         ST    R0,WORKLENG              SAVE LENGTH OF AREA GOTTEN      02920000
         SRL   R0,1                     DIVIDE IT IN HALVES             02930000
         ST    R1,WORKA                 ADDR OF WORK AREA 'A'           02940000
         STH   R0,0(,R1)                SET IT UP FOR SVC 26            02950000
         AR    R1,R0                    BUMP TO THE SECOND HALF         02960000
         ST    R1,WORKB                 ADDR OF WORK AREA 'B'           02970000
         STH   R0,0(,R1)                SET IT UP FOR SVC 26            02980000
         EJECT                                                          02990000
*        *----------------------------------------------------*         03000000
*        *  ALL INIT'S DONE - READ VCL CNTL STMT'S UNTIL EOD  *         03010000
*        *  CHECK THE FORMAT OF THE CONTROL STATEMENT         *         03020000
*        *  EXTRACT THE CATALOG NAME & PASSWORD IF ANY        *         03030000
*        *----------------------------------------------------*         03040000
         SPACE                                                          03050000
READCNTL EQU   *                                                        03060000
         GET   VCLCNTL,LINE             GET A 'LISTCAT' STATEMENT       03070000
         SPACE                                                          03080000
         MVI   CATNAME,X'40'            CLEAR PREVIOUS CATALOG NAME     03090000
         MVC   CATNAME+1(L'CATNAME-1),CATNAME                           03100000
         MVI   PASSWORD,X'40'           AND ITS PASSWORD                03110000
         MVC   PASSWORD+1(L'PASSWORD),PASSWORD                          03120000
         SPACE                                                          03130000
         MVI   CNTL,C'0'                SKIP 2 LINES WHEN PRINT         03140000
         LA    R1,LINE                  ADDR OF THE CONTROL STATEMENT   03150000
         LA    R2,71                    LENGTH TO SCAN                  03160000
CHKBLK1  EQU   *                                                        03170000
         CLI   0(R1),X'40'              SQUEEZE OUT THE LEADING BLANKS  03180000
         BNE   NONBLK1                                                  03190000
         LA    R1,1(,R1)                                                03200000
         BCT   R2,CHKBLK1                                               03210000
         B     BADCNTL                  A BLANK CARD                    03220000
         SPACE                                                          03230000
NONBLK1  EQU   *                                                        03240000
         CLC   LISTCAT,0(R1)                                            03250000
         BNE   BADCNTL                  FIRST KEYWORD IS NOT 'LISTCAT ' 03260000
         AR    R2,R1                                                    03270000
         LA    R1,L'LISTCAT(,R1)        ADDR OF 2ND FIELD TO PARSE      03280000
         SR    R2,R1                    LENGTH OF CHARACTERS REMAINING  03290000
CHKBLK2  EQU   *                                                        03300000
         CLI   0(R1),X'40'              SQUEEZE OUT BLANKS IN BETWEEN   03310000
         BNE   NONBLK2                                                  03320000
         LA    R1,1(,R1)                                                03330000
         BCT   R2,CHKBLK2                                               03340000
         B     BADCNTL                  'LISTCAT' IS THE ONLY KEYWORD   03350000
         EJECT                                                          03360000
*        *----------------------------------------------------*         03370000
*        *  COPY THE VSAM CATALOG FROM THE CONTROL STATEMENT  *         03380000
*        *----------------------------------------------------*         03390000
         SPACE                                                          03400000
NONBLK2  EQU   *                                                        03410000
         CLI   0(R1),C'A'               IS THE 1ST CHAR 'A-Z'?          03420000
         BL    BADCNTL                  NO - INVALID CATLG NAME         03430000
         CLI   0(R1),C'Z'                                               03440000
         BH    BADCNTL                                                  03450000
         SR    R3,R3                    CLEAR THE LENGTH OF CATLG NAME  03460000
         LR    R4,R1                    SAVE THE ADDR OF CATLG NAME     03470000
CHKCATNM EQU   *                                                        03480000
         CLI   0(R1),X'40'              KEEP SCANNING UNTIL CATLG NAME  03490000
         BE    CTNMEND                  IS ENDED BY A BLANK             03500000
         CLI   0(R1),C'/'               OR                              03510000
         BE    CTNMEND                  A SLASH                         03520000
         LA    R3,1(,R3)                OR UNTIL                        03530000
         C     R3,=F'44'                ITS LENGTH                      03540000
         BH    BADCNTL                  EXCEEDS 44 BYTES                03550000
         LA    R1,1(,R1)                                                03560000
         BCT   R2,CHKCATNM                                              03570000
         SPACE                                                          03580000
         BCTR  R3,0                     LESS ONE FOR MACHINE CODE       03590000
         EX    R3,MOVECTNM              SAVE THE CATALOG NAME AND       03600000
         B     NOPASSWD                 LOOK UP ITS PASSWORD            03610000
         SPACE 2                                                        03620000
CTNMEND  EQU   *                                                        03630000
         BCTR  R3,0                     LESS ONE FOR MACHINE CODE       03640000
         EX    R3,MOVECTNM              SAVE THE CATALOG NAME           03650000